Circuit: * \\vmware-host\Shared Folders\non-work-projects\battery-capacity-meter-2024\ltspice\opamp-offset-compensation.asc

Direct Newton iteration failed to find .op point.  (Use ".option noopiter" to skip.)
Starting Gmin stepping
Gmin = 10
Gmin = 1.07374
Gmin = 0.115292
Gmin = 0.0123794
Gmin = 0.00132923
Gmin = 0.000142725
Gmin = 1.5325e-05
vernier = 0.5
vernier = 0.25
Gmin = 8.55108e-06
vernier = 0.333333
vernier = 0.444444
Gmin = 3.6295e-06
vernier = 0.592592
vernier = 0.790123
Gmin = 9.64496e-07
vernier = 1
Gmin = 1.28327e-07
Gmin = 1.3779e-08
Gmin = 1.47951e-09
Gmin = 1.58861e-10
Gmin = 1.70576e-11
Gmin = 1.83154e-12
Gmin = 1.9666e-13
Gmin = 0
Gmin stepping succeeded in finding the operating point.


Date: Thu Jan 18 09:46:00 2024
Total elapsed time: 0.259 seconds.

tnom = 27
temp = 27
method = Gear
totiter = 2762
traniter = 2082
tranpoints = 1042
accept = 1042
rejected = 0
matrix size = 39
fillins = 30
solver = Normal
Avg thread counts: 1.1/1.2/1.2/1.1
Matrix Compiler1: 4.78 KB object code size  1.0/0.9/[0.4]
Matrix Compiler2: 4.27 KB object code size  0.6/0.9/[0.5]

